network/smib_genrou/smib_genrou_v32.raw
0,   100.00,  32, 0, 1, 50.00     / PSS(R)E 32 RAW created by rawd32  THU, MAY 22 2014  15:52
TEST SYSTEM

     1,'GENERATOR   ', 100.0000,2,   1,   1,   1,0.99997,   2.8575
     2,'LOAD        ', 100.0000,1,   1,   1,   1,0.99847,  -0.0128
 0 /End of Bus data, Begin Load data
     2,'1 ',1,   1,   1,     0.000,     0.000,    50.075,     0.000,     0.000,     0.000,   1,1
 0 /End of Load data, Begin Fixed shunt data
 0 /End of Fixed shunt data, Begin Generator data
     1,'1 ',    50.011,     2.507,   100.000,  -100.000,1.00000,     0,   100.000, 0.00000E+0, 2.00000E-1, 0.00000E+0, 0.00000E+0,1.00000,1,  100.0,   100.000,  -100.000,   1,1.0000
     2,'1 ',   -49.978,     1.500,  9999.000, -9999.000,1.00000,     0,   100.000, 0.00000E+0, 1.00000E+0, 0.00000E+0, 0.00000E+0,1.00000,0,  100.0,  9999.000, -9999.000,   1,1.0000
 0 /End of Generator data, Begin Branch data
     1,      2,'1 ', 1.00000E-3, 2.00000E-1,   0.00000,    0.00,    0.00,    0.00,  0.00000,  0.00000,  0.00000,  0.00000,1,1,   0.00,   1,1.0000
     1,      2,'2 ', 1.00000E-3, 2.00000E-1,   0.00000,    0.00,    0.00,    0.00,  0.00000,  0.00000,  0.00000,  0.00000,1,1,   0.00,   1,1.0000
 0 /End of Branch data, Begin Transformer data
 0 /End of Transformer data, Begin Area interchange data
 0 /End of Area interchange data, Begin Two-terminal dc line data
 0 /End of Two-terminal dc line data, Begin VSC dc line data
 0 /End of VSC dc line data, Begin Impedance correction table data
 0 /End of Impedance correction table data, Begin Multi-terminal dc line data
 0 /End of Multi-terminal dc line data, Begin Multi-section line data
 0 /End of Multi-section line data, Begin Zone data
 0 /End of Zone data, Begin Inter-area transfer data
 0 /End of Inter-area transfer data, Begin Owner data
 0 /End of Owner data, Begin FACTS device data
 0 /End of FACTS device data, Begin Switched shunt data
 0 /End of Switched shunt data, Begin GNE device data
 0 /End of GNE device data
Q
